<tlLogics version="0.13" xmlns:xsi="http://www.w3.org/2001/XMLSchema-instance" xsi:noNamespaceSchemaLocation="http://sumo.dlr.de/xsd/tllogic_file.xsd">
    
    <tlLogic id="1" type="static" programID="custom" offset="0">
        <phase duration="31" state="G"/>
        <phase duration="31" state="r"/>
    </tlLogic>
</tlLogics>